test_2bus.raw
0, 100.00, 33, 0, 0, 60.00
Test 2-bus system
Created for testing
0 / END OF SYSTEM-WIDE DATA, BEGIN BUS DATA  
1, 'BUS1', 138.0, 3, 1, 1, 1, 1.0, 0.0
2, 'BUS2', 138.0, 1, 1, 1, 1, 1.0, 0.0
0 / END OF BUS DATA, BEGIN LOAD DATA
2, '1', 1, 1, 1, 100.0, 50.0, 0.0, 0.0, 0.0, 0.0, 1
0 / END OF LOAD DATA, BEGIN GENERATOR DATA
1, '1', 100.0, 50.0, 200.0, -200.0, 1.0, 100.0, 1, 200.0, 0.0, 1.0, 0, 1.0, 0, 1.0, 1.0, 0, 1.0
0 / END OF GENERATOR DATA, BEGIN BRANCH DATA
1, 2, '1', 0.01, 0.1, 0.0, 250.0, 250.0, 250.0, 0.0, 0.0, 0.0, 1
0 / END OF BRANCH DATA, BEGIN TRANSFORMER DATA
0 / END OF TRANSFORMER DATA, BEGIN AREA DATA
0 / END OF AREA DATA, BEGIN TWO-TERMINAL DC DATA
0 / END OF TWO-TERMINAL DC DATA, BEGIN SWITCHED SHUNT DATA
0 / END OF SWITCHED SHUNT DATA
Q
